        UNTESTED MODELS
.MODEL ZENV4 D RS=1 CJO=4P IS=2.1E-9 PHI=0.6
.MODEL N5399 NPN BF=40 RB=100 RC=10 CJE=2P CJC=4.7P PC=0.84 PE=.895
.MODEL N5332 PNP BF=45 RB=100 RC=10 CJE=4.7P CJC=6.12PF PC=.985 PE=.835
.MODEL N4416A NJF VTO=-2.53 BETA=4.8E-4 RD=20 RS=20 CGS=0.7P CGD=.85P PB=0.6 IS=1.0E-10
.MODEL DIODE D IS=2.1E-9 CJO=5.66E-12
.MODEL MOD1 PNP 100,1,100,10,.1,10PF,.1NS,4PF,2PF,1.E-10,.7,.5,50
.MODEL MOD2 NPN 100,1,100,10,.1,10PF,.1NS,4PF,2PF,1.E-10,.7,.5,50
