SOMETHING TO LOOK AT
V1 5 0 -22.
V2 0 1 AC 1
R1 1 2 50
R2 3 4 1000K
R3 0 4 18K
R4 4 6 2K
C1 3 2 1.0
Q1 5 3 6 X33
.OUT V0 4 0 PLOT MA PH
.AC DEC 10 1HZ 1000HZ
.MODEL X33 NJF -2.5,5.E-4,0.01,20.,20.,.7PF,.9PF,.6,1.E-10
.END
