.SIME RTL INVERTER
.NP 1
RE 3 5 10K
VCC 4 0 DC 5
VIN 1 0 PULSE 0 5 2NS 2NS 2NS 30NS
RB 1 2 10K
Q1 3 2 0 Q1
RC 4 5 1K
.OUTPUT VC 3 0 PRINT DC PLOT TR 0 5
.MODEL Q1 NPN BF=20 RB=100 TF=.1NS CJC=2PF
.DC TC VIN 0 5 1
.TRAN 1NS 5NS
.END
