.TEMPS RUN #1 PAUL HERSEY
.TRAN 2NS 200NS 0 1PS 3PS 1NS 58124PS 1PS 58127PS 1NS 200NS
CMX 0 51 5N
LMX 1 2 2U
RMX 2 3 11
CPEAK 0 3 580P
VCMX 50 0 PULSE 1 0 1PS 1PS 0 0 0
V2 3 53 PULSE 2 0 58124PS 1PS 0 0 0
V3 51 52 PULSE 2 0 1PS 1PS 0 0 0
.MODEL SW D RS=1M TT=1PS CJO=0 IS=1E-14 N=1 PHI=1U EG=1
D1 50 51 SW
D2 52 1 SW
D3 53 54 SW
R1 54 0 6E4
L1 54 4 360N
L2 4 5 360N
L3 5 6 360N
L4 6 7 360N
L5 7 8 360N
L6 8 9 360N
L7 9 10 320N
L8 10 11 340N
L9 11 12 360N
L10 12 13 375N
L11 13 14 .3969U
L12 14 15 .4188U
L13 15 16 .4406U
L14 16 17 .4625U
L15 17 18 .4844U
L16 18 19 .5006U
L17 19 20 .5281U
L18 20 21 .5500U
L19 21 22 .5719U
L20 22 23 .5938U
L21 23 24 .6156U
L22 24 25 .6375U
L23 25 26 .6594U
L24 26 27 .6813U
L25 27 28 .7031U
L26 28 29 .7250U
L27 29 30 .7469U
L28 30 31 .7688U
L29 31 32 .7906U
L30 32 33 .8125U
L31 33 34 .8344U
L32 34 35 .8563U
L33 35 36 .8713U
L34 36 37 .9000U
L35 37 38 .8771U
L36 38 39 .8542U
L37 39 40 .8313U
L38 40 41 .8083U
L39 41 42 .7885U
L40 42 43 .7625U
L41 43 44 .7396U
L42 44 45 .7167U
L43 45 46 .6938U
L44 46 47 .6708U
L45 47 48 .6479U
L46 48 49 .6250U
C1 0 4 100P
C2 0 5 100P
C3 0 6 100P
C4 0 7 100P
C5 0 8 100P
C6 0 9 100P
C7 0 10 78.13P
C8 0 11 73.53P
C9 0 12 69.44P
C10 0 13 66.60P
C11 0 14 62.99P
C12 0 15 59.70P
C13 0 16 56.74P
C14 0 17 54.05P
C15 0 18 51.61P
C16 0 19 49.38P
C17 0 20 47.34P
C18 0 21 45.45P
C19 0 22 43.72P
C20 0 23 42.11P
C21 0 24 40.61P
C22 0 25 39.22P
C23 0 26 37.15P
C24 0 27 36.70P
C25 0 28 35.56P
C26 0 29 34.48P
C27 0 30 33.47P
C28 0 31 32.52P
C29 0 32 31.62P
C30 0 33 30.77P
C31 0 34 29.96P
C32 0 35 29.20P
C33 0 36 28.47P
C34 0 37 27.78P
C35 0 38 28.50P
C36 0 39 29.27P
C37 0 40 30.08P
C38 0 41 30.93P
C39 0 42 31.83P
C40 0 43 32.79P
C41 0 44 33.80P
C42 0 45 34.88P
C43 0 46 36.04P
C44 0 47 37.27P
C45 0 48 38.59P
C46 0 49 40.00P
RTERM 0 49 125
.OUTPUT VMX 51 0 PRINT TR
.OUTPUT VCP 3 0 PRINT TR
.OUTPUT VLINE 37 0 PRINT TR
.OUTPUT VIN 54 0 PRINT TR
.OUTPUT VV1 0 50 PRINT TR
.END
