CIRCUIT ANALYSIS EMI1
R1       5      4    180.00    
R10     20     22    25.000    
RLNK   19   29   23.33
R11     21     26    76.800    
R12     23     14    25.000    
R13     24     25    76.800    
R14      1      4    25.000    
R2       3      5    1.0000 K  
R3       6      0    470.00    
R4       9     10    82.000    
R5      11     13    1.0000 K  
R6R6     3     13    150.00    
R7      12      0    470.00    
R8       3     16    470.00    
RLPS 30 15 1
ISL V 31 0 30 15 2
R9      17     0    32.000    
L1      29      3    500.00 NH
LP      16     30    2.7200 UH
LS      17    31   480.00 NH
C1      12      0    25.000 PF
C2      16      0    50.000 PF
C3     9 10  250PF
VS1      2      0 DC 5.0V
VS2      3      0 DC 15.0V
D123     5      2    DIODE 
D223     2      6     DIODE 
D323     8      7     DIODE 
D423     9      7     DIODE 
D523    12     15     DIODE 
D623    25     14     DIODE 
D723   26     20     DIODE 
Q1      7      6      5    M369
Q2      9      8      3    M894
Q3     12     11     10    M894
Q4     13     14      0    M369
Q5     16     20      0    M369
Q6     19     17     0    M725
VSP1 1 0 PULSE 4.8 0 50NS 0 0 70NS 200NS
VSP2 24 0 PULSE 0 4.8 40NS 0 0 110NS 200NS
VSP3 23 0 PULSE 0 .8  40NS 0 0 110NS 200NS
VSP4 21 0 PULSE 0 4.8 30NS 0 0 110NS 200NS
VSP5 22 0 PULSE 0 .8 30NS 0 0 110NS 200NS
.MODEL M369 NPN BF=30 BR=.1 EG=1.1
.MODEL DIODE D  RS=10 TT=1NS CJO=3PF  IS=1.0E-14
.MODEL M894 PNP BF=30 BR=.1 EG=1.1
.MODEL M725 NPN BF=20 BR=.1 EG=1.1
.TRANS 1NS 100NS
.OUT V16 16 0   PRINT TR
.OUT V10 10 0 PRINT TR
.OUT V12 12 0 PRINT TR
.OUT V5 5 0 PRINT TR
.NP
.END

-
