HIGH PASS FILTER
VIN 0 3 AC 1
C1 0 1 .1U
C2 1 2 .1U
C3 2 3 .1U
C4 3 4 .1U
R1 1 5 47K
R2 2 5 47K
R3 3 5 47K
R4 4 5 47K
.AC OCT 1 30 1920HZ
.OUTPUT V2 2 3 PRINT MA PLOT MA PRINT PH PLOT PH
.END
