HIGH VOLTAGE SWITCH
.MODEL TRANPR X 1 2 3 4
R1 1 5 500K
R2 5 3 500K
Q1 2 5 6 T1
Q2 2 6 4 T1
.MODEL T1 NPN BF=30 CCS=25P IS=25M PE=1
.FINISH
X1 1 2 3 4 TRANPR
RS 1 2 1.5M
X2 3 4 5 6 TRANPR
X3 5 6 7 8 TRANPR
X4 7 8 9 10 TRANPR
X5 9 10 11 12 TRANPR
X6 11 12 0 14 TRANPR
CRT 2 0 6P
Q3 14 15 0 T3
.MODEL T3 NPN BF=30 CCS=25P IS=25M PE=1
VSUP 1 0 DC 3000
VSWCH 15 0 DC 5
.OUT VOUT 2 0 PLOT MA PH TR
.TRAN 1U 60 0
.END
