LIC 1 DIFFERENTIAL PAIR
.SENS V4
.NP 1
.TRAN 5NS 20NS 0 .5NS 20NS
*       AC DEC 10 1 10GHZ
*       DC VIN -0.25 0.25 0.005
*       TRAN 5NS 500NS
VIN 1 0 AC 1 SIN 0 .1 5MEG
VCC 8 0 DC 12
VEE 9 0 DC -12
Q1 4 2 6 QNL
Q2 5 3 6 QNL
RS1 1 2 1K
RS2 3 0 1K
RC1 4 8 10K
RC2 5 8 10K
Q3 6 7 9 QNL
Q4 7 7 9 QNL
RBIAS 7 8 20K
.OUT V4 4 0 PRINT TR
.MOD QNL NPN BF=80 RB=100 CCS=2PF TF=0.3NS TR=6NS CJE=3PF CJC=2PF VA=50
.END
