.CROSS OVER
.AC DEC 10 20 20KC
.OUT VH 3 0 PLOT MA
.OUT VL 2 0 PLOT MA
VIN 1 0 AC 1
C1 1 3 2UF
RH 3 0 16
RL 2 0 3
L1 1 2 5MH
.END
